Version 4
SHEET 1 880 680
WIRE 64 96 32 96
WIRE 176 96 144 96
WIRE 288 96 256 96
WIRE 352 96 288 96
WIRE 32 128 32 96
WIRE 288 128 288 96
WIRE 32 240 32 208
WIRE 288 240 288 192
FLAG 288 240 0
FLAG 32 240 0
FLAG 352 96 OUT
IOPIN 352 96 Out
SYMBOL ind 160 112 R270
WINDOW 0 32 56 VTop 2
WINDOW 3 5 56 VBottom 2
SYMATTR InstName L1
SYMATTR Value 330µ
SYMATTR SpiceLine Rser=1
SYMBOL cap 272 128 R0
SYMATTR InstName C1
SYMATTR Value 1µ
SYMBOL res 160 80 R90
WINDOW 0 0 56 VBottom 2
WINDOW 3 32 56 VTop 2
SYMATTR InstName R1
SYMATTR Value 220
SYMBOL voltage 32 112 R0
WINDOW 0 41 56 Left 2
WINDOW 3 24 157 Left 2
WINDOW 123 19 101 Left 2
WINDOW 39 0 0 Left 0
SYMATTR InstName V1
SYMATTR Value SINE(0 5 0 0 0 1u)
SYMATTR Value2 AC 1 0
TEXT 56 304 Left 2 !.ac dec 100 1 1meg
TEXT 216 40 Center 2 ;Rs = 1
