**$ENCRYPTED_LIB
**$INTERFACE
*$
* TPS55340
*****************************************************************************
* (C) Copyright 2020 Texas Instruments Incorporated. All rights reserved.                                            
*****************************************************************************
** This model is designed as an aid for customers of Texas Instruments.
** TI and its licensors and suppliers make no warranties, either expressed
** or implied, with respect to this model, including the warranties of 
** merchantability or fitness for a particular purpose.  The model is
** provided solely on an "as is" basis.  The entire risk as to its quality
** and performance is with the customer
*****************************************************************************
*
* This model is subject to change without notice. Texas Instruments
* Incorporated is not responsible for updating this model.
*
*****************************************************************************
*
** Released by: Texas Instruments Inc.
* Part: TPS55340
* Date: 26MAR2020
* Model Type: AVERAGE
* Simulator: PSPICE
* Simulator Version: 17.2
* EVM Order Number: TPS55340EVM-017
* EVM Users Guide: SLVU668B–April2012–RevisedJuly 2019
* Datasheet: SLVSBD4D–MAY2012–REVISEDJANUARY2019
* Topologies Supported: Boost
*
* Model Version: Final 1.0
*
*****************************************************************************
*
* Updates:
*
* Final 1.0
* 
*
*****************************************************************************
*
* Model Usage Notes:
* 1. Since this is an average model used for AC analysis, only the pins affecting AC analysis are modeled.
* 2. The model is developed and validated for CCM mode of operation only.
* 3. Temperature effects are not modeled. 
*
*****************************************************************************
.SUBCKT TPS55340_AVG COMP FB FREQ PGND SW VIN VOUT PARAMS: L=10u FS=602k 
$CDNENCSTART_ADV2
17f62b1fb318c25603aeb85644ae98a5d179ef807807791f6459efacb9d7ffc37a831b146dc0f06bb1ef275619162e6d8f7ad0dc708bf15ae1a1d5bd0ae623b2
e188d3203806bb9d7d6c9c0d9a7ce7d3f79c85a8479f249607f60879df568c3a78c970b512e1be1f819756976f79c3ddf2dfa333defb5548c5c06f54a9088d66
6b0937d474c62554e2cfce50392096db6b38eb79b30f20e755eaf6117783e0ebb83a7a525cb18a6196d3cdc0502e03f943e4e60c37ec66dbaf10ac4368d86937
d88ea868635f3f9efa96c09f853dd5a221243f3c0962eb1b6c2399591b268cc0cc5250fb8c79dc2a7f1f4f31764b4f67ee87055cd271d10d985ad35bd0a65d7a
15dcd6eb19861ce57303a08199891e8930493127e266a8e65021ee29ea9ac8d2e8364366f98e2da1f04753bcf984c2f597dc57da2b5cde8e13537eb672b1c3eb
ec90477c6c5f516e3d7e2a2be0217e77110013caf470bd29e5f1943eeb2d5f60db4ff519beb5ce39545087fa134075bb40c8d0a03acf0a638468586bb8229ff9
bb830df0ea28b14d7f7ad3cceed4425d6d95185bd623bea0026d3d3257b4ae9fa75490ddbec383b2092722166d175ecf76d99b2a8d780c4cab2eb1a162c6fb94
ce89bd4e0f144ec3aa73ba2215f4c61877b4e9a6cff0733f124b30f3a4248f34f1bd2514dad91071a25fe8876772825baa74a6a647fa3965db04e9097d561908
3b00eb6ebdbab6cf33539bc119d240642a801bc47e55d9876bda61f70fb39f1e48241eb7e66978f7cdd2c80ec21ce24df8425f1dd704b23f606984f6322c366c
bbd55f92d6a2bb259562633c221465275a806610c0bcc5d44111e1542034eca43a52e33ae9627c592b568f04c241f9a16ac88dc07bc15fef29107bc8599c72e9
7f0151811bda9a10d6ee2cf4506663f40b2aec62695eb6883e10175e640086acdd01c27a487980f1b3dae733dcdd29eb07b9604104c5ee80f4eee7d3269b2248
ce748a4240fcdaadae81342238a50e7d06c2bd41186161c749d70fdccf4b341da30bcbb8ab10c60d3995630989b0e6e00be32f1e09bd6a02fc781a882fd58a71
df5836ab93699746fb6aba7a1432a295a597ce9ae4349dc13a40991c65f63f11bd37ae956da61de1c1ff70e62516f9c59f6909ecefdbc78a575d5a368a0a845b
d4fbf6babea36eebc722f17e062a91690b9309acdb48a5b5b69bf83b34dbd353bd37ae956da61de1c1ff70e62516f9c59f6909ecefdbc78a575d5a368a0a845b
aae129e24748b631d1264f7d2fdb7efadc1683ecf93e7f0befd3354e00d9bfb034ef79739a8a3b7599688f731189a49eaaf98c5151600d3fa7af11ceb271e1cb
94358f0f37e54d894029b87ee43caded6df7c9052037446215724fbbbda65963681e906b9ee51ff493ee9ade06c0446990707626e4dbcb0ac6d32ee04548b47a
ca54401bf603afba6d1b24d2109bfefcb808b88f27902b64db00ec94a7321419cded208c85e4f5ae5212f0bf2082b9ab9726afefe0e77b5065656c71665f9665
e40da9fb371bb254a139b8cb04c441c9d32cc1340533356f91e44b0e81d43eea944f95fcf5cfd8ea1e74491920d030ed43e4e60c37ec66dbaf10ac4368d86937
3aec7f2041d9a5074179dd0613986634d7e8f6497ba78af36531341509fd1d5d23800f603061e7764d6e7c68da964fc1b2d19662941904814434dd5f72fc0cc6
3efca6286237c874d5727a4be1a093fd3f771c4dba7c92de7e46e77531a1f585e42a8d050574aaf29b81b65d665c003b0be32f1e09bd6a02fc781a882fd58a71
c4b08c4df66d48f93c163e64d4677a9071059f9b05f0e915d06d8055c5550e4123800f603061e7764d6e7c68da964fc1b2d19662941904814434dd5f72fc0cc6
0fd246883d401d89c5c93a041a7608f00420b91a8ceb0cc988548c3f9a3a677fbe9433bd1862418e101c5452e18207db3f434997d864b206ec41428e8e664b5b
367963ef34d7f0b5f3ae8ae1669f66145853501dbeef222a9d4919fef6e0b2cba14cd0eae3cfad17f158351c64ab0ef87cfa99b8f0f09b854b74cc0f72242f98
0c30b7bd8a35a387588c69e817cc8d5ddd24a7121dfd0d8fe579fe50b28431ba46b5296e7f97cd08f73b4150fd0ac67b0268875d553a36cb423971d71c431b85
fb5a85d7368c2afbf8e6be2456d7ea9a87c6ff53e07267e62ffa9d5ac469837646d38f62fcd71c1ddd1db7f23a0c8c7a43e4e60c37ec66dbaf10ac4368d86937
78f64e956f2c406c0cf8e724c82f2346d028a2ceb92acb649a0cd63e487e05aa75142e53dd7718bc57056b35c15c08b2b40d09a97c4dd243ea31c3f1893e2ded
684b021092c27ee49927b518926f972d05fba1ab807ea52ac77cf07a8856be74cded208c85e4f5ae5212f0bf2082b9ab9726afefe0e77b5065656c71665f9665
22e7f44462db70786abac5b5516d04223676e827099c2d80a74555be9a823e5375142e53dd7718bc57056b35c15c08b2b40d09a97c4dd243ea31c3f1893e2ded
a8d981aaa3b5a747d29554ec887d786bd3f833c2d150a665b26fa9a52037cbc805eb741b6e23c678709e9ad153ac9e1ee2cd0b1e8236f8f54a00c190544cfbe4
dfda4012bfd23d088c3131b0d02f6d43217ff3e16c8b1e01460f68bf04d63a4de495fca8f236b4abffd4e04b33ddf0a0e2cd0b1e8236f8f54a00c190544cfbe4
db064184872d318421002b0b8efbd977483472b7282c634efe39629f175752ce6cce08c8134ec4bb16da277ba7ebe0634205e31e0dde18e706979c7ba1f3a75b
b2d411fc5cfeface146113b9b51ee3f378c970b512e1be1f819756976f79c3dd8982662c53f447e1794e3c03cf4baf64b0714b6afcf40a7c8df59a26d5e509bf
ff4373254d05124ee17a346ec6e88a487c1fa763a335b40960a257e10e8b0928e3cb9ba9c6ff28e39dfce8a665febfd3f48d1da45add12802a6af6fffe3add5a
b4002b638133896e00b847c9b5e465d9a46a7e6b523a27a3ae895de64efb5cd0da7229ca248f2f085b971c988fffd45ec176fa6b69209df86d1360c87f71da18
ee6453446312ace3c61efbbf5c3bb26a8bd9366ad00e57a5a973903eece465673720c41c15d2afe4d2c9cb17721407edb2d19662941904814434dd5f72fc0cc6
ca02580bb5ff589b75dec31903846d88770ccced9d86f435739a8d63ad028ee7cded208c85e4f5ae5212f0bf2082b9ab9726afefe0e77b5065656c71665f9665
21a94f90ea301dd83cbe99a8d6459fbb91892f08173d800a1e65489e5c1cbed9587cd950cd7eb719c61cd7696e63d7eee0df2bafbbf33188710e5f154a0cf802
f8795ba129a4dc2dcb2381b0201408039c87da434b0febde2ee45a6b0ec4e6fe39e8a1db2824a95f7cc47015426c86ec0be32f1e09bd6a02fc781a882fd58a71
c05e0b61da6268ad23d074eeab63c749af788b7e8b46afffcc6343dd593bf53b5c5dc4b97852cd48122a2cbdae63dfcf99489e39d4e1b47b52db49d4e41a426b
9f83900dccc05a6e7e2a66b612d7f188820f838123a8f07fc12c503543e0ce646128ad51d88aa13233aca874d5f0c52776d99b2a8d780c4cab2eb1a162c6fb94
ce25d03dce80df690f779cd56369b406eaa7d8743d51fa0241570ec542535930b2df57e9d3f127729ac45552a8ef691c002a45dc5785303ebd09a6a0d4207026
5ad79007d035ee44e2ed04640f63ce099a2cea4f19abe9d82c4bafe101e513a8261bfb238cf965c249a1eaa068b515d03c48a5e0f6ace073491748c9eed37285
7b3764bc9970ee0b9d2de344cac7927175142e53dd7718bc57056b35c15c08b233aa8851f4afc3eef6be6fbc5f6d7372d4cebc053891acd8085b53b58516d24d
dc09efcda0a0902a4a63eb59bc4516bdcdd43bfc5e5bff8904eed73818d4a383dd01c27a487980f1b3dae733dcdd29eb07b9604104c5ee80f4eee7d3269b2248
0295fd5b9062495a7547d6559fa85214bf79072bd4ba58d6b6debab3900c5251e495fca8f236b4abffd4e04b33ddf0a0e2cd0b1e8236f8f54a00c190544cfbe4
474629cfd9e58fd0a764094393e369f7dba43dcfd10b10c1f3f24a9724ed41093cf1e8760f0615a56210638d379e4095d1d1834eee632d39cf1b2991dad8f113
1cf9ade5fa166ea9d6569082d7dd425575142e53dd7718bc57056b35c15c08b233aa8851f4afc3eef6be6fbc5f6d7372d4cebc053891acd8085b53b58516d24d
$CDNENCFINISH_ADV2
.ENDS TPS55340_AVG
*$
.subckt TPS55340_AVG_H2 1 2 3 4  
$CDNENCSTART_ADV2
17f62b1fb318c25603aeb85644ae98a5d179ef807807791f6459efacb9d7ffc37a831b146dc0f06bb1ef275619162e6d8f7ad0dc708bf15ae1a1d5bd0ae623b2
6f738a32eb9076713498c571adedc4edb0fef51300aa6cf86c18e3f1fef304603f263f9139a9f2ef395c3de2b8bdc142a6a08dd95875f1f6641914608a4f3ce9
07005c114ca3dee160ec373e4e28d8bce9824cead7b2ff8fbcedb55549cdcaa314f264624ca1938602f2741163aa14053c9e83c40c206fb07786120b0f63e57f
$CDNENCFINISH_ADV2
.ends TPS55340_AVG_H2
*$
.subckt TPS55340_AVG_F1 1 2 3 4  
$CDNENCSTART_ADV2
17f62b1fb318c25603aeb85644ae98a5d179ef807807791f6459efacb9d7ffc37a831b146dc0f06bb1ef275619162e6d8f7ad0dc708bf15ae1a1d5bd0ae623b2
1b9dbe06e7cacf5bb83ea725710999129b705bd361f2578447550400a93b436fdd01c27a487980f1b3dae733dcdd29eb07b9604104c5ee80f4eee7d3269b2248
2766e9eed1178ed2af9b6a0ae452691fe9824cead7b2ff8fbcedb55549cdcaa314f264624ca1938602f2741163aa14053c9e83c40c206fb07786120b0f63e57f
$CDNENCFINISH_ADV2
.ends TPS55340_AVG_F1
*$
.subckt TPS55340_AVG_H1 1 2 3 4  
$CDNENCSTART_ADV2
17f62b1fb318c25603aeb85644ae98a5d179ef807807791f6459efacb9d7ffc37a831b146dc0f06bb1ef275619162e6d8f7ad0dc708bf15ae1a1d5bd0ae623b2
39b374b4dc658f29afcd627aa67aba148b3b1f8395e3ec3a0b668e3776ba70643f263f9139a9f2ef395c3de2b8bdc142a6a08dd95875f1f6641914608a4f3ce9
95f68ceb9514f8c962dd1c36ad7e9a6ae9824cead7b2ff8fbcedb55549cdcaa314f264624ca1938602f2741163aa14053c9e83c40c206fb07786120b0f63e57f
$CDNENCFINISH_ADV2
.ends TPS55340_AVG_H1
*$
.model D_D1 d 
$CDNENCSTART_ADV2
17f62b1fb318c25603aeb85644ae98a5d179ef807807791f6459efacb9d7ffc37a831b146dc0f06bb1ef275619162e6d8f7ad0dc708bf15ae1a1d5bd0ae623b2
1f5d2547cc66d938dd5738b7fc655ffd78c970b512e1be1f819756976f79c3dd8982662c53f447e1794e3c03cf4baf64b0714b6afcf40a7c8df59a26d5e509bf
5caf1aa881be0f05f343a5e71319b6e83f263f9139a9f2ef395c3de2b8bdc14238b37bef8ef1bf9fa60f38d3bf6af8c8fd6c2fd3b05ad7bad11a2a5756bed46b
ae49597ae01f45e9af07b2181a2155c31f938228d91c64607d89546665e8682bff8646c8ad2e78aaf68d90dd128568d77f40f40cfe4781f14fade234d683d459
$CDNENCFINISH_ADV2
*$
.subckt d_d 1 2
$CDNENCSTART_ADV2
17f62b1fb318c25603aeb85644ae98a5d179ef807807791f6459efacb9d7ffc37a831b146dc0f06bb1ef275619162e6d8f7ad0dc708bf15ae1a1d5bd0ae623b2
7239895c878ea5d29926b71112860160dd01c27a487980f1b3dae733dcdd29eb442d656df08cabc90db98011e4d6e92c8969de314ab657875eb4c997bfb2ccd6
8433654e80248e9d0ce1379054d5321e78c970b512e1be1f819756976f79c3dd8982662c53f447e1794e3c03cf4baf64b0714b6afcf40a7c8df59a26d5e509bf
1f5d2547cc66d938dd5738b7fc655ffd78c970b512e1be1f819756976f79c3dd8982662c53f447e1794e3c03cf4baf64b0714b6afcf40a7c8df59a26d5e509bf
ae49597ae01f45e9af07b2181a2155c31f938228d91c64607d89546665e8682bff8646c8ad2e78aaf68d90dd128568d77f40f40cfe4781f14fade234d683d459
17a31ffe77583c5ec02c31b30a3bab0b78c970b512e1be1f819756976f79c3dd8982662c53f447e1794e3c03cf4baf64b0714b6afcf40a7c8df59a26d5e509bf
$CDNENCFINISH_ADV2
.ends d_d
*$
.subckt CCM_SW_AVG 1 2 3 5
$CDNENCSTART_ADV2
17f62b1fb318c25603aeb85644ae98a5d179ef807807791f6459efacb9d7ffc37a831b146dc0f06bb1ef275619162e6d8f7ad0dc708bf15ae1a1d5bd0ae623b2
c4b6e26f7d221ece49a99a4c9451b81b80aae0cbeefcf1afd6750e53d71be7065627d8fc48b2c34f37c190a57ebd260ce110174b7826cb6c98c0a04d177ba769
b524b7e702fdfd286bd207fcc07be15326d428bdbeb65cbbddac979f2e8a473a90777deca8f8d38a99287f2c3ab2419de2cd0b1e8236f8f54a00c190544cfbe4
7cbf66bea72382f922e2866f35d8e0f3bff6626dfd3747e1a76bab8a3bce6a2475142e53dd7718bc57056b35c15c08b2b40d09a97c4dd243ea31c3f1893e2ded
$CDNENCFINISH_ADV2
.ends
*$
