Version 4
SHEET 1 880 680
WIRE 272 -32 -64 -32
WIRE 496 32 -64 32
WIRE 544 32 496 32
WIRE 672 32 624 32
WIRE 720 32 672 32
WIRE 496 48 496 32
WIRE 464 64 384 64
WIRE 672 80 672 32
WIRE 672 80 528 80
WIRE 64 96 48 96
WIRE 160 96 144 96
WIRE 272 96 272 -32
WIRE 272 96 160 96
WIRE 464 96 272 96
WIRE -64 128 -64 32
WIRE 48 128 48 96
WIRE 160 128 160 96
WIRE 272 128 272 96
WIRE -64 240 -64 208
WIRE 48 240 48 208
WIRE 160 240 160 192
WIRE 272 240 272 208
WIRE 384 240 384 64
WIRE 496 240 496 112
FLAG 160 240 0
FLAG 272 240 0
FLAG 384 240 0
FLAG 48 240 0
FLAG 496 240 0
FLAG -64 240 0
FLAG 720 32 OUT
IOPIN 720 32 Out
FLAG -64 -32 IN
IOPIN -64 -32 In
SYMBOL ind 256 112 R0
WINDOW 0 43 27 Left 2
WINDOW 3 41 70 Left 2
SYMATTR InstName L1
SYMATTR Value 330µ
SYMBOL cap 144 128 R0
SYMATTR InstName C1
SYMATTR Value 1µ
SYMBOL res 160 80 R90
WINDOW 0 0 56 VBottom 2
WINDOW 3 32 56 VTop 2
SYMATTR InstName R1
SYMATTR Value 220
SYMBOL voltage 48 112 R0
WINDOW 0 41 56 Left 2
WINDOW 3 -115 168 Left 2
WINDOW 123 0 0 Left 0
WINDOW 39 0 0 Left 0
SYMATTR InstName V1
SYMATTR Value PULSE(0 5 0 0 0 1u)
SYMBOL voltage -64 112 R0
WINDOW 0 41 56 Left 2
WINDOW 3 -58 56 Left 2
WINDOW 123 0 0 Left 0
WINDOW 39 -94 1 Left 2
SYMATTR InstName V2
SYMATTR Value 5
SYMATTR SpiceLine Rser=0
SYMBOL res 640 16 R90
WINDOW 0 0 56 VBottom 2
WINDOW 3 32 56 VTop 2
SYMATTR InstName R2
SYMATTR Value 4k7
SYMBOL OpAmps\\UniversalOpAmp2 496 80 R0
WINDOW 0 30 22 Left 2
SYMATTR InstName U1
TEXT -88 308 Left 2 !.tran 0 3m 0 1u startup
