Version 4
SHEET 1 1052 680
WIRE -320 -304 -336 -304
WIRE -208 -304 -320 -304
WIRE -128 -304 -208 -304
WIRE 48 -304 -128 -304
WIRE 96 -304 48 -304
WIRE 496 -304 96 -304
WIRE 96 -288 96 -304
WIRE 496 -288 496 -304
WIRE 464 -272 416 -272
WIRE -208 -256 -208 -304
WIRE 608 -256 528 -256
WIRE 656 -256 608 -256
WIRE -320 -240 -320 -304
WIRE 320 -240 288 -240
WIRE 464 -240 384 -240
WIRE 96 -208 -144 -208
WIRE 96 -192 96 -208
WIRE 288 -192 288 -240
WIRE 416 -192 416 -272
WIRE 512 -192 416 -192
WIRE 608 -192 608 -256
WIRE 608 -192 592 -192
WIRE 416 -176 416 -192
WIRE 656 -176 656 -256
WIRE 48 -144 48 -304
WIRE -320 -128 -320 -176
WIRE -320 -128 -352 -128
WIRE -208 -128 -208 -160
WIRE -208 -128 -320 -128
WIRE 16 -128 -208 -128
WIRE 496 -128 496 -224
WIRE 512 -128 496 -128
WIRE 96 -112 96 -128
WIRE 96 -112 80 -112
WIRE -320 -96 -320 -128
WIRE -320 -96 -400 -96
WIRE -128 -96 -128 -304
WIRE -112 -96 -128 -96
WIRE -16 -96 -32 -96
WIRE 16 -96 -16 -96
WIRE 96 -96 96 -112
WIRE 496 -96 496 -128
WIRE 288 -80 288 -112
WIRE 320 -80 288 -80
WIRE 336 -80 320 -80
WIRE 656 -80 656 -112
WIRE -208 -64 -208 -128
WIRE 48 -64 48 -80
WIRE -320 -48 -320 -96
WIRE 96 -16 96 -32
WIRE 96 -16 -144 -16
WIRE -16 16 -16 -96
WIRE 32 16 -16 16
WIRE -128 32 -128 -96
WIRE -16 32 -16 16
WIRE 656 32 656 0
WIRE 32 48 32 16
WIRE -320 80 -320 16
WIRE -320 80 -336 80
WIRE -320 128 -320 80
WIRE -208 128 -208 32
WIRE -128 128 -128 112
WIRE -16 128 -16 112
WIRE 32 128 32 112
WIRE 96 128 96 64
WIRE -400 160 -400 -96
WIRE 288 160 288 -80
WIRE 288 160 -400 160
WIRE 416 160 416 -96
WIRE 416 160 288 160
WIRE 656 160 656 96
WIRE 656 160 416 160
FLAG 96 128 0
FLAG 48 -64 0
FLAG -208 128 0
FLAG -128 128 0
FLAG -16 128 0
FLAG 32 128 0
FLAG -320 128 0
FLAG -352 -128 0V
FLAG -336 -304 +10V
FLAG -336 80 -10V
FLAG 496 -96 0
FLAG 512 -128 -10V
FLAG 352 320 0
FLAG 320 -80 REF
SYMBOL voltage 288 -208 R0
WINDOW 0 54 70 Left 2
WINDOW 3 -38 -186 Left 2
WINDOW 39 0 0 Left 0
SYMATTR InstName V1
SYMATTR Value SINE(432m 312m 2000)
SYMATTR Value2 AC 1 0
SYMBOL voltage -128 16 R0
WINDOW 0 -65 83 Left 2
WINDOW 3 -64 28 Left 2
WINDOW 123 0 0 Left 0
WINDOW 39 -94 1 Left 2
SYMATTR InstName V2
SYMATTR Value 20
SYMBOL OpAmps\\UniversalOpAmp2 48 -112 R0
WINDOW 0 -39 -50 Left 2
SYMATTR InstName U2
SYMBOL res 0 128 R180
WINDOW 0 40 76 Left 2
WINDOW 3 42 40 Left 2
SYMATTR InstName R3
SYMATTR Value 2k2
SYMBOL polcap 320 -224 R270
WINDOW 0 21 0 VTop 2
WINDOW 3 0 32 VBottom 2
SYMATTR InstName C1
SYMATTR Value 4700µ
SYMATTR Description Capacitor
SYMATTR Type cap
SYMATTR SpiceLine V=25 Irms=2.55 Rser=0.022
SYMBOL res -16 -112 R90
WINDOW 0 62 82 VBottom 2
WINDOW 3 35 34 VTop 2
SYMATTR InstName R1
SYMATTR Value 2k2
SYMBOL diode 80 -96 R0
WINDOW 0 42 17 Left 2
WINDOW 3 41 44 Left 2
SYMATTR InstName D1
SYMATTR Value 1N4148
SYMBOL diode 112 -128 R180
WINDOW 0 -42 49 Left 2
WINDOW 3 -99 22 Left 2
SYMATTR InstName D2
SYMATTR Value 1N4148
SYMBOL res 80 -304 R0
WINDOW 0 44 45 Left 2
WINDOW 3 43 71 Left 2
SYMATTR InstName R2
SYMATTR Value 4k7
SYMBOL res 80 -32 R0
WINDOW 0 42 47 Left 2
WINDOW 3 43 73 Left 2
SYMATTR InstName R4
SYMATTR Value 4k7
SYMBOL Contrib\\Toshiba\\bjt\\TMBT3904 -144 -256 M0
WINDOW 0 70 76 Left 2
WINDOW 3 27 47 Left 2
SYMATTR InstName U3
SYMBOL Contrib\\Toshiba\\bjt\\TMBT3906 -144 32 R180
WINDOW 0 70 79 Left 2
WINDOW 3 26 48 Left 2
SYMATTR InstName U4
SYMBOL polcap -304 -240 M0
SYMATTR InstName C2
SYMATTR Value 220µ
SYMATTR Description Capacitor
SYMATTR Type cap
SYMATTR SpiceLine V=25 Irms=2.55 Rser=0.022
SYMBOL polcap -304 -48 M0
SYMATTR InstName C3
SYMATTR Value 220µ
SYMATTR Description Capacitor
SYMATTR Type cap
SYMATTR SpiceLine V=25 Irms=2.55 Rser=0.022
SYMBOL cap 16 48 R0
SYMATTR InstName C4
SYMATTR Value 10n
SYMBOL res 400 -192 R0
WINDOW 0 44 41 Left 2
WINDOW 3 44 70 Left 2
SYMATTR InstName R5
SYMATTR Value 1k
SYMBOL res 608 -208 R90
WINDOW 0 63 73 VBottom 2
WINDOW 3 35 24 VTop 2
SYMATTR InstName R6
SYMATTR Value 10k
SYMBOL cap 336 256 R0
SYMATTR InstName C5
SYMATTR Value 10n
SYMBOL OpAmps\\UniversalOpAmp3 496 -256 R0
SYMATTR InstName U1
SYMBOL res2 640 -176 R0
SYMATTR InstName R7
SYMATTR Value 47
SYMBOL ind 640 -96 R0
SYMATTR InstName L1
SYMATTR Value 250m
SYMBOL cap 640 32 R0
SYMATTR InstName C6
SYMATTR Value 1µ
TEXT 256 -328 Left 2 ;.tran 0 5m 0 1u startup
TEXT 272 -360 Left 2 !.ac dec 100 1 1meg
TEXT 328 -168 Left 2 ;SINE
TEXT 232 184 VLeft 2 ;- - - - - - - - - - - - - - - - - - - - - - - - - - - - - - - - - - - - - -
TEXT 296 -64 Left 2 ;AD9833
TEXT 304 -288 Left 2 ;DC Block
TEXT -328 -344 Left 2 ;Symmetrical Source Circuit +10V / -10V
