Version 4
SHEET 1 1052 680
WIRE -320 -304 -336 -304
WIRE -208 -304 -320 -304
WIRE -128 -304 -208 -304
WIRE 48 -304 -128 -304
WIRE 96 -304 48 -304
WIRE 528 -304 96 -304
WIRE 96 -288 96 -304
WIRE 528 -288 528 -304
WIRE 496 -272 448 -272
WIRE -208 -256 -208 -304
WIRE 640 -256 560 -256
WIRE 688 -256 640 -256
WIRE -320 -240 -320 -304
WIRE 320 -240 288 -240
WIRE 416 -240 384 -240
WIRE 496 -240 416 -240
WIRE 96 -208 -144 -208
WIRE 96 -192 96 -208
WIRE 288 -192 288 -240
WIRE 448 -192 448 -272
WIRE 544 -192 448 -192
WIRE 640 -192 640 -256
WIRE 640 -192 624 -192
WIRE 448 -176 448 -192
WIRE 688 -176 688 -256
WIRE 48 -144 48 -304
WIRE -320 -128 -320 -176
WIRE -320 -128 -352 -128
WIRE -208 -128 -208 -160
WIRE -208 -128 -320 -128
WIRE 16 -128 -208 -128
WIRE 528 -128 528 -224
WIRE 560 -128 528 -128
WIRE 96 -112 96 -128
WIRE 96 -112 80 -112
WIRE -320 -96 -320 -128
WIRE -320 -96 -400 -96
WIRE -128 -96 -128 -304
WIRE -112 -96 -128 -96
WIRE -16 -96 -32 -96
WIRE 16 -96 -16 -96
WIRE 96 -96 96 -112
WIRE 528 -96 528 -128
WIRE 288 -80 288 -112
WIRE 320 -80 288 -80
WIRE 688 -80 688 -112
WIRE -208 -64 -208 -128
WIRE 48 -64 48 -80
WIRE -320 -48 -320 -96
WIRE 416 -32 416 -240
WIRE 96 -16 96 -32
WIRE 96 -16 -144 -16
WIRE -128 32 -128 -96
WIRE -16 32 -16 -96
WIRE 688 32 688 0
WIRE -320 80 -320 16
WIRE -320 80 -336 80
WIRE -320 128 -320 80
WIRE -208 128 -208 32
WIRE -128 128 -128 112
WIRE -16 128 -16 112
WIRE 96 128 96 64
WIRE -400 160 -400 -96
WIRE 288 160 288 -80
WIRE 288 160 -400 160
WIRE 416 160 416 48
WIRE 416 160 288 160
WIRE 448 160 448 -96
WIRE 448 160 416 160
WIRE 688 160 688 96
WIRE 688 160 448 160
WIRE -352 224 -400 224
WIRE -192 224 -272 224
WIRE -112 224 -192 224
WIRE -16 224 -112 224
WIRE 560 224 512 224
WIRE 688 224 640 224
WIRE -192 256 -192 224
WIRE -112 272 -112 224
WIRE -16 272 -16 224
WIRE 512 288 512 224
WIRE 512 288 432 288
WIRE 544 288 512 288
WIRE 688 288 688 224
WIRE 688 288 640 288
WIRE -400 304 -400 224
WIRE -192 352 -192 336
WIRE -160 352 -192 352
WIRE -192 368 -192 352
WIRE 432 368 432 288
WIRE 688 368 688 288
WIRE 512 384 512 288
WIRE 544 384 512 384
WIRE 624 384 624 336
WIRE 624 384 608 384
WIRE -112 400 -112 368
WIRE -16 400 -16 336
WIRE -16 400 -112 400
WIRE -400 464 -400 384
WIRE -192 464 -192 448
WIRE -112 464 -112 400
WIRE 512 480 512 384
WIRE 528 480 512 480
WIRE 624 480 624 384
WIRE 624 480 608 480
WIRE 432 528 432 448
WIRE 688 528 688 448
FLAG 96 128 0
FLAG 48 -64 0
FLAG -208 128 0
FLAG -128 128 0
FLAG -16 128 0
FLAG -320 128 0
FLAG -352 -128 0V
FLAG -336 -304 +10V
FLAG -336 80 -10V
FLAG 528 -96 0
FLAG 560 -128 -10V
FLAG 528 64 0
FLAG 320 -80 AGND
FLAG -192 464 0
FLAG -400 464 0
FLAG -112 464 0
FLAG 432 528 0
FLAG 688 528 0
SYMBOL voltage 288 -208 R0
WINDOW 0 54 70 Left 2
WINDOW 3 -38 -186 Left 2
WINDOW 39 0 0 Left 0
SYMATTR InstName V1
SYMATTR Value SINE(432m 312m 2000)
SYMATTR Value2 AC 1 0
SYMBOL voltage -128 16 R0
WINDOW 0 -65 83 Left 2
WINDOW 3 -64 28 Left 2
WINDOW 123 0 0 Left 0
WINDOW 39 -94 1 Left 2
SYMATTR InstName V2
SYMATTR Value 20
SYMBOL OpAmps\\UniversalOpAmp2 48 -112 R0
WINDOW 0 -120 -53 Left 2
SYMATTR InstName LM741CN
SYMBOL res 0 128 R180
WINDOW 0 40 76 Left 2
WINDOW 3 42 40 Left 2
SYMATTR InstName R3
SYMATTR Value 2k2
SYMBOL polcap 320 -224 R270
WINDOW 0 21 0 VTop 2
WINDOW 3 0 32 VBottom 2
SYMATTR InstName C1
SYMATTR Value 4700µ
SYMATTR Description Capacitor
SYMATTR Type cap
SYMATTR SpiceLine V=25 Irms=2.55 Rser=0.022
SYMBOL res -16 -112 R90
WINDOW 0 62 82 VBottom 2
WINDOW 3 35 34 VTop 2
SYMATTR InstName R1
SYMATTR Value 2k2
SYMBOL diode 80 -96 R0
SYMATTR InstName D1
SYMATTR Value 1N4148
SYMBOL diode 112 -128 R180
WINDOW 0 -42 49 Left 2
WINDOW 3 -99 22 Left 2
SYMATTR InstName D2
SYMATTR Value 1N4148
SYMBOL res 80 -304 R0
WINDOW 0 44 45 Left 2
WINDOW 3 43 71 Left 2
SYMATTR InstName R2
SYMATTR Value 4k7
SYMBOL res 80 -32 R0
WINDOW 0 42 47 Left 2
WINDOW 3 43 73 Left 2
SYMATTR InstName R4
SYMATTR Value 4k7
SYMBOL Contrib\\Toshiba\\bjt\\TMBT3904 -144 -256 M0
WINDOW 0 70 76 Left 2
WINDOW 3 27 47 Left 2
SYMATTR InstName U3
SYMBOL Contrib\\Toshiba\\bjt\\TMBT3906 -144 32 R180
WINDOW 0 70 79 Left 2
WINDOW 3 26 48 Left 2
SYMATTR InstName U4
SYMBOL polcap -304 -240 M0
SYMATTR InstName C2
SYMATTR Value 220µ
SYMATTR Description Capacitor
SYMATTR Type cap
SYMATTR SpiceLine V=25 Irms=2.55 Rser=0.022
SYMBOL polcap -304 -48 M0
SYMATTR InstName C3
SYMATTR Value 220µ
SYMATTR Description Capacitor
SYMATTR Type cap
SYMATTR SpiceLine V=25 Irms=2.55 Rser=0.022
SYMBOL res 432 -192 R0
WINDOW 0 44 41 Left 2
WINDOW 3 44 70 Left 2
SYMATTR InstName R5
SYMATTR Value 1k
SYMBOL res 640 -208 R90
WINDOW 0 62 75 VBottom 2
WINDOW 3 35 24 VTop 2
SYMATTR InstName R6
SYMATTR Value 10k
SYMBOL cap 512 0 R0
SYMATTR InstName C5
SYMATTR Value 10n
SYMBOL OpAmps\\UniversalOpAmp3 528 -256 R0
SYMATTR InstName OPA564
SYMATTR Value2 Avol=1Meg GBW=17Meg Slew=40
SYMATTR SpiceLine Ilimit=1.5 Rail=0 Vos=20 Phimargin=45
SYMBOL res2 672 -176 R0
SYMATTR InstName R7
SYMATTR Value 100
SYMBOL ind 672 -96 R0
SYMATTR InstName L1
SYMATTR Value 250m
SYMBOL cap 672 32 R0
SYMATTR InstName C6
SYMATTR Value 0.1µ
SYMBOL res 432 64 R180
WINDOW 0 36 76 Left 2
WINDOW 3 36 40 Left 2
SYMATTR InstName R8
SYMATTR Value 100k
SYMBOL nmos -160 272 R0
SYMATTR InstName M1
SYMBOL voltage -400 288 R0
WINDOW 123 0 0 Left 0
WINDOW 39 0 0 Left 0
SYMATTR InstName V3
SYMATTR Value 5
SYMBOL res -256 208 R90
WINDOW 0 0 56 VBottom 2
WINDOW 3 32 56 VTop 2
SYMATTR InstName Requiv
SYMATTR Value 10k
SYMBOL res -176 352 R180
WINDOW 0 36 76 Left 2
WINDOW 3 36 40 Left 2
SYMATTR InstName R10
SYMATTR Value 1Meg
SYMBOL res -176 464 R180
WINDOW 0 36 76 Left 2
WINDOW 3 36 40 Left 2
SYMATTR InstName R11
SYMATTR Value 10
SYMBOL cap -32 272 R0
SYMATTR InstName C4
SYMATTR Value 0.1µ
SYMBOL nmos 544 336 R270
WINDOW 0 68 -16 VRight 2
WINDOW 3 68 36 VRight 2
SYMATTR InstName M2
SYMATTR Value IRFZ44N
SYMBOL voltage 432 352 R0
WINDOW 123 0 0 Left 0
WINDOW 39 0 0 Left 0
SYMATTR InstName V4
SYMATTR Value 5
SYMBOL res 672 352 R0
SYMATTR InstName Requiv1
SYMATTR Value 1Meg
SYMBOL res 544 240 R270
WINDOW 0 19 115 VTop 2
WINDOW 3 46 -1 VBottom 2
SYMATTR InstName R12
SYMATTR Value 10
SYMBOL res 624 464 R90
WINDOW 0 0 56 VBottom 2
WINDOW 3 32 56 VTop 2
SYMATTR InstName R9
SYMATTR Value 0.1
SYMBOL polcap 544 368 M90
WINDOW 0 0 32 VBottom 2
WINDOW 3 32 32 VTop 2
SYMATTR InstName C7
SYMATTR Value 470µ
SYMATTR Description Capacitor
SYMATTR Type cap
SYMATTR SpiceLine V=25 Irms=2.55 Rser=0.022
TEXT 256 -328 Left 2 !.tran 0 5m 0 1u startup
TEXT 272 -360 Left 2 ;.ac dec 100 1 1meg
TEXT 328 -168 Left 2 ;SINE
TEXT 232 184 VLeft 2 ;- - - - - - - - - - - - - - - - - - - - - - - - - - - - - - - - - - - - - -
TEXT 296 -56 Left 2 ;AD9833
TEXT 304 -288 Left 2 ;DC Block
TEXT -328 -344 Left 2 ;Symmetrical Source Circuit +10V / -10V
TEXT -56 -192 Left 2 ;LM358N
TEXT -184 192 Left 2 !.ic V(n012)=0
TEXT -256 -384 Left 2 !.lib TPS55340_AVG_EVM.LIB
TEXT -176 -416 Left 2 !.lib OPA564.LIB
